data/feeders/R1-25.00-1.glm
clock {
     timezone EST+5EDT;
     timestamp '2000-01-01 0:00:00';
     stoptime '2000-01-01 0:01:00';
}
#set profiler=1
module tape;
module powerflow{
  solver_method NR;
  default_maximum_voltage_error 1e-6;
};
object transformer_configuration {
  name XF1_PADMOUNT_AS_10;
  power_rating 10.00;
  powerA_rating 10.00;
  powerB_rating 0.0;
  powerC_rating 0.0;
  install_type PADMOUNT;
  connect_type SINGLE_PHASE_CENTER_TAPPED;
  primary_voltage 14400.0;
  secondary_voltage 120.0;
  resistance 0.00950;
  resistance1 0.01900;
  resistance2 0.01900;
  reactance 0.01040;
  reactance1 0.00520;
  reactance2 0.00520;
  shunt_resistance 147.06;
  shunt_reactance 34.25;
}
object transformer_configuration {
  name XF1_PADMOUNT_BS_5;
  power_rating 5.00;
  powerA_rating 0.0;
  powerB_rating 5.00;
  powerC_rating 0.0;
  install_type PADMOUNT;
  connect_type SINGLE_PHASE_CENTER_TAPPED;
  primary_voltage 14400.0;
  secondary_voltage 120.0;
  resistance 0.01050;
  resistance1 0.02100;
  resistance2 0.02100;
  reactance 0.01224;
  reactance1 0.00612;
  reactance2 0.00612;
  shunt_resistance 111.11;
  shunt_reactance 29.59;
}
object transformer_configuration {
  name XF1_PADMOUNT_CS_10;
  power_rating 10.00;
  powerA_rating 0.0;
  powerB_rating 0.0;
  powerC_rating 10.00;
  install_type PADMOUNT;
  connect_type SINGLE_PHASE_CENTER_TAPPED;
  primary_voltage 14400.0;
  secondary_voltage 120.0;
  resistance 0.00950;
  resistance1 0.01900;
  resistance2 0.01900;
  reactance 0.01040;
  reactance1 0.00520;
  reactance2 0.00520;
  shunt_resistance 147.06;
  shunt_reactance 34.25;
}
object transformer_configuration {
  name XF1_POLETOP_AS_25;
  power_rating 25.00;
  powerA_rating 25.00;
  powerB_rating 0.0;
  powerC_rating 0.0;
  install_type POLETOP;
  connect_type SINGLE_PHASE_CENTER_TAPPED;
  primary_voltage 14400.0;
  secondary_voltage 120.0;
  resistance 0.00800;
  resistance1 0.01600;
  resistance2 0.01600;
  reactance 0.01208;
  reactance1 0.00604;
  reactance2 0.00604;
  shunt_resistance 192.31;
  shunt_reactance 51.81;
}
object transformer_configuration {
  name XF1_POLETOP_AS_10;
  power_rating 10.00;
  powerA_rating 10.00;
  powerB_rating 0.0;
  powerC_rating 0.0;
  install_type POLETOP;
  connect_type SINGLE_PHASE_CENTER_TAPPED;
  primary_voltage 14400.0;
  secondary_voltage 120.0;
  resistance 0.00950;
  resistance1 0.01900;
  resistance2 0.01900;
  reactance 0.01040;
  reactance1 0.00520;
  reactance2 0.00520;
  shunt_resistance 147.06;
  shunt_reactance 34.25;
}
object transformer_configuration {
  name XF1_POLETOP_AS_5;
  power_rating 5.00;
  powerA_rating 5.00;
  powerB_rating 0.0;
  powerC_rating 0.0;
  install_type POLETOP;
  connect_type SINGLE_PHASE_CENTER_TAPPED;
  primary_voltage 14400.0;
  secondary_voltage 120.0;
  resistance 0.01050;
  resistance1 0.02100;
  resistance2 0.02100;
  reactance 0.01224;
  reactance1 0.00612;
  reactance2 0.00612;
  shunt_resistance 111.11;
  shunt_reactance 29.59;
}
object transformer_configuration {
  name XF1_POLETOP_AS_15;
  power_rating 15.00;
  powerA_rating 15.00;
  powerB_rating 0.0;
  powerC_rating 0.0;
  install_type POLETOP;
  connect_type SINGLE_PHASE_CENTER_TAPPED;
  primary_voltage 14400.0;
  secondary_voltage 120.0;
  resistance 0.00850;
  resistance1 0.01700;
  resistance2 0.01700;
  reactance 0.01176;
  reactance1 0.00588;
  reactance2 0.00588;
  shunt_resistance 166.67;
  shunt_reactance 39.53;
}
object transformer_configuration {
  name XF1_PADMOUNT_AS_5;
  power_rating 5.00;
  powerA_rating 5.00;
  powerB_rating 0.0;
  powerC_rating 0.0;
  install_type PADMOUNT;
  connect_type SINGLE_PHASE_CENTER_TAPPED;
  primary_voltage 14400.0;
  secondary_voltage 120.0;
  resistance 0.01050;
  resistance1 0.02100;
  resistance2 0.02100;
  reactance 0.01224;
  reactance1 0.00612;
  reactance2 0.00612;
  shunt_resistance 111.11;
  shunt_reactance 29.59;
}
object transformer_configuration {
  name XF1_POLETOP_CS_5;
  power_rating 5.00;
  powerA_rating 0.0;
  powerB_rating 0.0;
  powerC_rating 5.00;
  install_type POLETOP;
  connect_type SINGLE_PHASE_CENTER_TAPPED;
  primary_voltage 14400.0;
  secondary_voltage 120.0;
  resistance 0.01050;
  resistance1 0.02100;
  resistance2 0.02100;
  reactance 0.01224;
  reactance1 0.00612;
  reactance2 0.00612;
  shunt_resistance 111.11;
  shunt_reactance 29.59;
}
object transformer_configuration {
  name XF1_POLETOP_CS_37p5;
  power_rating 37.50;
  powerA_rating 0.0;
  powerB_rating 0.0;
  powerC_rating 37.50;
  install_type POLETOP;
  connect_type SINGLE_PHASE_CENTER_TAPPED;
  primary_voltage 14400.0;
  secondary_voltage 120.0;
  resistance 0.00725;
  resistance1 0.01450;
  resistance2 0.01450;
  reactance 0.01320;
  reactance1 0.00660;
  reactance2 0.00660;
  shunt_resistance 212.77;
  shunt_reactance 57.47;
}
object transformer_configuration {
  name XF1_POLETOP_CS_10;
  power_rating 10.00;
  powerA_rating 0.0;
  powerB_rating 0.0;
  powerC_rating 10.00;
  install_type POLETOP;
  connect_type SINGLE_PHASE_CENTER_TAPPED;
  primary_voltage 14400.0;
  secondary_voltage 120.0;
  resistance 0.00950;
  resistance1 0.01900;
  resistance2 0.01900;
  reactance 0.01040;
  reactance1 0.00520;
  reactance2 0.00520;
  shunt_resistance 147.06;
  shunt_reactance 34.25;
}
object transformer_configuration {
  name XF1_POLETOP_CS_25;
  power_rating 25.00;
  powerA_rating 0.0;
  powerB_rating 0.0;
  powerC_rating 25.00;
  install_type POLETOP;
  connect_type SINGLE_PHASE_CENTER_TAPPED;
  primary_voltage 14400.0;
  secondary_voltage 120.0;
  resistance 0.00800;
  resistance1 0.01600;
  resistance2 0.01600;
  reactance 0.01208;
  reactance1 0.00604;
  reactance2 0.00604;
  shunt_resistance 192.31;
  shunt_reactance 51.81;
}
object transformer_configuration {
  name XF1_POLETOP_AS_37p5;
  power_rating 37.50;
  powerA_rating 37.50;
  powerB_rating 0.0;
  powerC_rating 0.0;
  install_type POLETOP;
  connect_type SINGLE_PHASE_CENTER_TAPPED;
  primary_voltage 14400.0;
  secondary_voltage 120.0;
  resistance 0.00725;
  resistance1 0.01450;
  resistance2 0.01450;
  reactance 0.01320;
  reactance1 0.00660;
  reactance2 0.00660;
  shunt_resistance 212.77;
  shunt_reactance 57.47;
}
object transformer_configuration {
  name XF1_PADMOUNT_AS_15;
  power_rating 15.00;
  powerA_rating 15.00;
  powerB_rating 0.0;
  powerC_rating 0.0;
  install_type PADMOUNT;
  connect_type SINGLE_PHASE_CENTER_TAPPED;
  primary_voltage 14400.0;
  secondary_voltage 120.0;
  resistance 0.00850;
  resistance1 0.01700;
  resistance2 0.01700;
  reactance 0.01176;
  reactance1 0.00588;
  reactance2 0.00588;
  shunt_resistance 166.67;
  shunt_reactance 39.53;
}
object transformer_configuration {
  name XF1_PADMOUNT_AN_10;
  power_rating 10.00;
  powerA_rating 10.00;
  powerB_rating 0.0;
  powerC_rating 0.0;
  install_type PADMOUNT;
  connect_type WYE_WYE;
  primary_voltage 24900.0;
  secondary_voltage 208.0;
  resistance 0.01900;
  reactance 0.01770;
  shunt_resistance 126.58;
  shunt_reactance 22.57;
}
object transformer_configuration {
  name XF1_PADMOUNT_BN_5;
  power_rating 5.00;
  powerA_rating 0.0;
  powerB_rating 5.00;
  powerC_rating 0.0;
  install_type PADMOUNT;
  connect_type WYE_WYE;
  primary_voltage 24900.0;
  secondary_voltage 208.0;
  resistance 0.01900;
  reactance 0.01770;
  shunt_resistance 126.58;
  shunt_reactance 22.57;
}
object transformer_configuration {
  name XF1_POLETOP_BN_5;
  power_rating 5.00;
  powerA_rating 0.0;
  powerB_rating 5.00;
  powerC_rating 0.0;
  install_type POLETOP;
  connect_type WYE_WYE;
  primary_voltage 24900.0;
  secondary_voltage 208.0;
  resistance 0.01900;
  reactance 0.01770;
  shunt_resistance 126.58;
  shunt_reactance 22.57;
}
object transformer_configuration {
  name XF1_POLETOP_CN_25;
  power_rating 25.00;
  powerA_rating 0.0;
  powerB_rating 0.0;
  powerC_rating 25.00;
  install_type POLETOP;
  connect_type WYE_WYE;
  primary_voltage 24900.0;
  secondary_voltage 208.0;
  resistance 0.01900;
  reactance 0.01770;
  shunt_resistance 126.58;
  shunt_reactance 22.57;
}
object transformer_configuration {
  name XF1_POLETOP_AN_10;
  power_rating 10.00;
  powerA_rating 10.00;
  powerB_rating 0.0;
  powerC_rating 0.0;
  install_type POLETOP;
  connect_type WYE_WYE;
  primary_voltage 24900.0;
  secondary_voltage 208.0;
  resistance 0.01900;
  reactance 0.01770;
  shunt_resistance 126.58;
  shunt_reactance 22.57;
}
object transformer_configuration {
  name XF3_PADMOUNT_ABCN_75;
  power_rating 75.00;
  powerA_rating 25.00;
  powerB_rating 25.00;
  powerC_rating 25.00;
  install_type PADMOUNT;
  connect_type WYE_WYE;
  primary_voltage 24900.0;
  secondary_voltage 208.0;
  resistance 0.01600;
  reactance 0.02420;
  shunt_resistance 158.73;
  shunt_reactance 30.86;
}
object transformer_configuration {
  name XF3_PADMOUNT_ABCN_30;
  power_rating 30.00;
  powerA_rating 10.00;
  powerB_rating 10.00;
  powerC_rating 10.00;
  install_type PADMOUNT;
  connect_type WYE_WYE;
  primary_voltage 24900.0;
  secondary_voltage 208.0;
  resistance 0.01900;
  reactance 0.01770;
  shunt_resistance 126.58;
  shunt_reactance 22.57;
}
object transformer_configuration {
  name XF1_PADMOUNT_CN_10;
  power_rating 10.00;
  powerA_rating 0.0;
  powerB_rating 0.0;
  powerC_rating 10.00;
  install_type PADMOUNT;
  connect_type WYE_WYE;
  primary_voltage 24900.0;
  secondary_voltage 208.0;
  resistance 0.01900;
  reactance 0.01770;
  shunt_resistance 126.58;
  shunt_reactance 22.57;
}
object transformer_configuration {
  name XF1_PADMOUNT_CN_75;
  power_rating 75.00;
  powerA_rating 0.0;
  powerB_rating 0.0;
  powerC_rating 75.00;
  install_type PADMOUNT;
  connect_type WYE_WYE;
  primary_voltage 24900.0;
  secondary_voltage 208.0;
  resistance 0.01600;
  reactance 0.02420;
  shunt_resistance 158.73;
  shunt_reactance 30.86;
}
object transformer_configuration {
  name XF1_PADMOUNT_CN_25;
  power_rating 25.00;
  powerA_rating 0.0;
  powerB_rating 0.0;
  powerC_rating 25.00;
  install_type PADMOUNT;
  connect_type WYE_WYE;
  primary_voltage 24900.0;
  secondary_voltage 208.0;
  resistance 0.01900;
  reactance 0.01770;
  shunt_resistance 126.58;
  shunt_reactance 22.57;
}
object transformer_configuration {
  name XF1_POLETOP_CN_15;
  power_rating 15.00;
  powerA_rating 0.0;
  powerB_rating 0.0;
  powerC_rating 15.00;
  install_type POLETOP;
  connect_type WYE_WYE;
  primary_voltage 24900.0;
  secondary_voltage 208.0;
  resistance 0.01900;
  reactance 0.01770;
  shunt_resistance 126.58;
  shunt_reactance 22.57;
}
object transformer_configuration {
  name XF1_PADMOUNT_CN_37p5;
  power_rating 37.50;
  powerA_rating 0.0;
  powerB_rating 0.0;
  powerC_rating 37.50;
  install_type PADMOUNT;
  connect_type WYE_WYE;
  primary_voltage 24900.0;
  secondary_voltage 208.0;
  resistance 0.01750;
  reactance 0.02120;
  shunt_resistance 142.86;
  shunt_reactance 25.38;
}
object transformer_configuration {
  name XF3_PADMOUNT_ABCN_45;
  power_rating 45.00;
  powerA_rating 15.00;
  powerB_rating 15.00;
  powerC_rating 15.00;
  install_type PADMOUNT;
  connect_type WYE_WYE;
  primary_voltage 24900.0;
  secondary_voltage 208.0;
  resistance 0.01750;
  reactance 0.02120;
  shunt_resistance 142.86;
  shunt_reactance 25.38;
}
object transformer_configuration {
  name XF1_PADMOUNT_CN_5;
  power_rating 5.00;
  powerA_rating 0.0;
  powerB_rating 0.0;
  powerC_rating 5.00;
  install_type PADMOUNT;
  connect_type WYE_WYE;
  primary_voltage 24900.0;
  secondary_voltage 208.0;
  resistance 0.01900;
  reactance 0.01770;
  shunt_resistance 126.58;
  shunt_reactance 22.57;
}
object transformer_configuration {
  name XF3_PADMOUNT_ABCN_150;
  power_rating 150.00;
  powerA_rating 50.00;
  powerB_rating 50.00;
  powerC_rating 50.00;
  install_type PADMOUNT;
  connect_type WYE_WYE;
  primary_voltage 24900.0;
  secondary_voltage 480.0;
  resistance 0.01300;
  reactance 0.03250;
  shunt_resistance 185.19;
  shunt_reactance 36.36;
}
object transformer_configuration {
  name XF3_POLETOP_ABCN_30;
  power_rating 30.00;
  powerA_rating 10.00;
  powerB_rating 10.00;
  powerC_rating 10.00;
  install_type POLETOP;
  connect_type WYE_WYE;
  primary_voltage 24900.0;
  secondary_voltage 208.0;
  resistance 0.01900;
  reactance 0.01770;
  shunt_resistance 126.58;
  shunt_reactance 22.57;
}
object transformer_configuration {
  name XF1_PADMOUNT_BN_15;
  power_rating 15.00;
  powerA_rating 0.0;
  powerB_rating 15.00;
  powerC_rating 0.0;
  install_type PADMOUNT;
  connect_type WYE_WYE;
  primary_voltage 24900.0;
  secondary_voltage 208.0;
  resistance 0.01900;
  reactance 0.01770;
  shunt_resistance 126.58;
  shunt_reactance 22.57;
}
object transformer_configuration {
  name XF1_POLETOP_CN_10;
  power_rating 10.00;
  powerA_rating 0.0;
  powerB_rating 0.0;
  powerC_rating 10.00;
  install_type POLETOP;
  connect_type WYE_WYE;
  primary_voltage 24900.0;
  secondary_voltage 208.0;
  resistance 0.01900;
  reactance 0.01770;
  shunt_resistance 126.58;
  shunt_reactance 22.57;
}
object transformer_configuration {
  name XF1_POLETOP_CN_5;
  power_rating 5.00;
  powerA_rating 0.0;
  powerB_rating 0.0;
  powerC_rating 5.00;
  install_type POLETOP;
  connect_type WYE_WYE;
  primary_voltage 24900.0;
  secondary_voltage 208.0;
  resistance 0.01900;
  reactance 0.01770;
  shunt_resistance 126.58;
  shunt_reactance 22.57;
}
object transformer_configuration {
  name XF1_POLETOP_CN_167;
  power_rating 167.00;
  powerA_rating 0.0;
  powerB_rating 0.0;
  powerC_rating 167.00;
  install_type POLETOP;
  connect_type WYE_WYE;
  primary_voltage 24900.0;
  secondary_voltage 480.0;
  resistance 0.01300;
  reactance 0.03520;
  shunt_resistance 200.00;
  shunt_reactance 40.00;
}
object transformer_configuration {
  name XF1_POLETOP_CN_37p5;
  power_rating 37.50;
  powerA_rating 0.0;
  powerB_rating 0.0;
  powerC_rating 37.50;
  install_type POLETOP;
  connect_type WYE_WYE;
  primary_voltage 24900.0;
  secondary_voltage 208.0;
  resistance 0.01750;
  reactance 0.02120;
  shunt_resistance 142.86;
  shunt_reactance 25.38;
}
object transformer_configuration {
  name XF1_POLETOP_AN_5;
  power_rating 5.00;
  powerA_rating 5.00;
  powerB_rating 0.0;
  powerC_rating 0.0;
  install_type POLETOP;
  connect_type WYE_WYE;
  primary_voltage 24900.0;
  secondary_voltage 208.0;
  resistance 0.01900;
  reactance 0.01770;
  shunt_resistance 126.58;
  shunt_reactance 22.57;
}
object transformer_configuration {
  name XF1_PADMOUNT_AN_5;
  power_rating 5.00;
  powerA_rating 5.00;
  powerB_rating 0.0;
  powerC_rating 0.0;
  install_type PADMOUNT;
  connect_type WYE_WYE;
  primary_voltage 24900.0;
  secondary_voltage 208.0;
  resistance 0.01900;
  reactance 0.01770;
  shunt_resistance 126.58;
  shunt_reactance 22.57;
}
object transformer_configuration {
  name XF3_POLETOP_ABCN_45;
  power_rating 45.00;
  powerA_rating 15.00;
  powerB_rating 15.00;
  powerC_rating 15.00;
  install_type POLETOP;
  connect_type WYE_WYE;
  primary_voltage 24900.0;
  secondary_voltage 208.0;
  resistance 0.01750;
  reactance 0.02120;
  shunt_resistance 142.86;
  shunt_reactance 25.38;
}
object transformer_configuration {
  name XF3_POLETOP_ABCN_2000;
  power_rating 2000.00;
  powerA_rating 666.67;
  powerB_rating 666.67;
  powerC_rating 666.67;
  install_type POLETOP;
  connect_type WYE_WYE;
  primary_voltage 24900.0;
  secondary_voltage 480.0;
  resistance 0.00720;
  reactance 0.05700;
  shunt_resistance 277.78;
  shunt_reactance 71.94;
}
object transformer_configuration {
  name XF3_POLETOP_ABCN_500;
  power_rating 500.00;
  powerA_rating 166.67;
  powerB_rating 166.67;
  powerC_rating 166.67;
  install_type POLETOP;
  connect_type WYE_WYE;
  primary_voltage 24900.0;
  secondary_voltage 480.0;
  resistance 0.01100;
  reactance 0.04880;
  shunt_resistance 222.22;
  shunt_reactance 44.25;
}
object transformer_configuration {
  name XF1_POLETOP_CN_75;
  power_rating 75.00;
  powerA_rating 0.0;
  powerB_rating 0.0;
  powerC_rating 75.00;
  install_type POLETOP;
  connect_type WYE_WYE;
  primary_voltage 24900.0;
  secondary_voltage 208.0;
  resistance 0.01600;
  reactance 0.02420;
  shunt_resistance 158.73;
  shunt_reactance 30.86;
}
object transformer_configuration {
  name XF1_POLETOP_AN_15;
  power_rating 15.00;
  powerA_rating 15.00;
  powerB_rating 0.0;
  powerC_rating 0.0;
  install_type POLETOP;
  connect_type WYE_WYE;
  primary_voltage 24900.0;
  secondary_voltage 208.0;
  resistance 0.01900;
  reactance 0.01770;
  shunt_resistance 126.58;
  shunt_reactance 22.57;
}
object transformer_configuration {
  name XF1_POLETOP_BN_25;
  power_rating 25.00;
  powerA_rating 0.0;
  powerB_rating 25.00;
  powerC_rating 0.0;
  install_type POLETOP;
  connect_type WYE_WYE;
  primary_voltage 24900.0;
  secondary_voltage 208.0;
  resistance 0.01900;
  reactance 0.01770;
  shunt_resistance 126.58;
  shunt_reactance 22.57;
}
object transformer_configuration {
  name XF1_PADMOUNT_BN_25;
  power_rating 25.00;
  powerA_rating 0.0;
  powerB_rating 25.00;
  powerC_rating 0.0;
  install_type PADMOUNT;
  connect_type WYE_WYE;
  primary_voltage 24900.0;
  secondary_voltage 208.0;
  resistance 0.01900;
  reactance 0.01770;
  shunt_resistance 126.58;
  shunt_reactance 22.57;
}
object transformer_configuration {
  name XF2_POLETOP_ACN_30;
  power_rating 30.00;
  powerA_rating 15.00;
  powerB_rating 0.0;
  powerC_rating 15.00;
  install_type POLETOP;
  connect_type WYE_WYE;
  primary_voltage 24900.0;
  secondary_voltage 208.0;
  resistance 0.01900;
  reactance 0.01770;
  shunt_resistance 126.58;
  shunt_reactance 22.57;
}
object transformer_configuration {
  name XF1_POLETOP_AN_25;
  power_rating 25.00;
  powerA_rating 25.00;
  powerB_rating 0.0;
  powerC_rating 0.0;
  install_type POLETOP;
  connect_type WYE_WYE;
  primary_voltage 24900.0;
  secondary_voltage 208.0;
  resistance 0.01900;
  reactance 0.01770;
  shunt_resistance 126.58;
  shunt_reactance 22.57;
}
object transformer_configuration {
  name XF2_POLETOP_ACN_45;
  power_rating 45.00;
  powerA_rating 22.50;
  powerB_rating 0.0;
  powerC_rating 22.50;
  install_type POLETOP;
  connect_type WYE_WYE;
  primary_voltage 24900.0;
  secondary_voltage 208.0;
  resistance 0.01750;
  reactance 0.02120;
  shunt_resistance 142.86;
  shunt_reactance 25.38;
}
object transformer_configuration {
  name XF1_POLETOP_AN_37p5;
  power_rating 37.50;
  powerA_rating 37.50;
  powerB_rating 0.0;
  powerC_rating 0.0;
  install_type POLETOP;
  connect_type WYE_WYE;
  primary_voltage 24900.0;
  secondary_voltage 208.0;
  resistance 0.01750;
  reactance 0.02120;
  shunt_resistance 142.86;
  shunt_reactance 25.38;
}
object transformer_configuration {
  name XF1_PADMOUNT_AN_15;
  power_rating 15.00;
  powerA_rating 15.00;
  powerB_rating 0.0;
  powerC_rating 0.0;
  install_type PADMOUNT;
  connect_type WYE_WYE;
  primary_voltage 24900.0;
  secondary_voltage 208.0;
  resistance 0.01900;
  reactance 0.01770;
  shunt_resistance 126.58;
  shunt_reactance 22.57;
}
object transformer_configuration {
  name XF1_POLETOP_BN_15;
  power_rating 15.00;
  powerA_rating 0.0;
  powerB_rating 15.00;
  powerC_rating 0.0;
  install_type POLETOP;
  connect_type WYE_WYE;
  primary_voltage 24900.0;
  secondary_voltage 208.0;
  resistance 0.01900;
  reactance 0.01770;
  shunt_resistance 126.58;
  shunt_reactance 22.57;
}
object transformer_configuration {
  name XF1_PADMOUNT_CN_15;
  power_rating 15.00;
  powerA_rating 0.0;
  powerB_rating 0.0;
  powerC_rating 15.00;
  install_type PADMOUNT;
  connect_type WYE_WYE;
  primary_voltage 24900.0;
  secondary_voltage 208.0;
  resistance 0.01900;
  reactance 0.01770;
  shunt_resistance 126.58;
  shunt_reactance 22.57;
}
object regulator_configuration {
  name feeder_reg_cfg;
  Control OUTPUT_VOLTAGE;
  band_center 14975.0;
  band_width 240;
  connect_type WYE_WYE;
  time_delay 30;
  raise_taps 16;
  lower_taps 16;
  regulation 0.10;
  tap_pos_A 0;
  tap_pos_B 0;
  tap_pos_C 0;
}
object regulator_configuration {
  name votlage_reg_cfg;
  Control OUTPUT_VOLTAGE;
  band_center 14975.0;
  band_width 240;
  connect_type WYE_WYE;
  time_delay 30;
  raise_taps 16;
  lower_taps 16;
  regulation 0.10;
  tap_pos_A 0;
  tap_pos_B 0;
  tap_pos_C 0;
}
object overhead_line_conductor {
  name ID_741;
  rating.summer.continuous 334.0;
  geometric_mean_radius 0.00814 ft;
  resistance 0.56300;
}
object overhead_line_conductor {
  name ID_742;
  rating.summer.continuous 149.0;
  geometric_mean_radius 0.00663 ft;
  resistance 1.50000;
}
object overhead_line_conductor {
  name ID_743;
  rating.summer.continuous 180.0;
  geometric_mean_radius 0.00418 ft;
  resistance 1.62570;
}
object overhead_line_conductor {
  name ID_744;
  rating.summer.continuous 230.0;
  geometric_mean_radius 0.01203 ft;
  resistance 0.95300;
}
object overhead_line_conductor {
  name ID_745;
  rating.summer.continuous 120.0;
  geometric_mean_radius 0.00700 ft;
  resistance 2.40970;
}
object overhead_line_conductor {
  name ID_746;
  rating.summer.continuous 197.0;
  geometric_mean_radius 0.00883 ft;
  resistance 1.51970;
}
object line_spacing {
  name ID_51;
  distance_AN 84.0 in;
}
object line_spacing {
  name ID_52;
  distance_AB 57.6 in;
  distance_BC 57.6 in;
  distance_AC 57.6 in;
  distance_AN 84.0 in;
  distance_BN 84.0 in;
  distance_CN 84.0 in;
}
object line_spacing {
  name ID_53;
  distance_BN 84.0 in;
}
object line_spacing {
  name ID_54;
  distance_CN 0.0 in;
}
object line_spacing {
  name ID_55;
  distance_AB 0.0 in;
  distance_BC 0.0 in;
  distance_AC 0.0 in;
  distance_AN 0.0 in;
  distance_BN 0.0 in;
  distance_CN 0.0 in;
}
object line_spacing {
  name ID_56;
  distance_CN 84.0 in;
}
object line_spacing {
  name ID_57;
  distance_AN 0.0 in;
}
object line_spacing {
  name ID_58;
  distance_AB 57.6 in;
  distance_AN 84.0 in;
  distance_BN 84.0 in;
}
object line_spacing {
  name ID_59;
  distance_BN 0.0 in;
}
object line_spacing {
  name ID_60;
  distance_BC 57.6 in;
  distance_BN 84.0 in;
  distance_CN 84.0 in;
}
object line_spacing {
  name ID_61;
  distance_CN 51.6 in;
}
object line_spacing {
  name ID_62;
  distance_AB 57.6 in;
  distance_BC 57.6 in;
  distance_AC 57.6 in;
  distance_AN 51.6 in;
  distance_BN 51.6 in;
  distance_CN 51.6 in;
}
object line_spacing {
  name ID_63;
  distance_AC 57.6 in;
  distance_AN 84.0 in;
  distance_CN 84.0 in;
}
object line_spacing {
  name ID_64;
  distance_AC 0.0 in;
  distance_AN 0.0 in;
  distance_CN 0.0 in;
}
object line_configuration {
  name ID_17;
  conductor_A ID_1171;
  conductor_N ID_1171;
  spacing ID_51;
}
object line_configuration {
  name ID_18;
  conductor_A ID_1172;
  conductor_N ID_1172;
  spacing ID_51;
}
object line_configuration {
  name ID_19;
  conductor_A ID_741;
  conductor_B ID_741;
  conductor_C ID_741;
  conductor_N ID_741;
  spacing ID_52;
}
object line_configuration {
  name ID_20;
  conductor_B ID_742;
  conductor_N ID_742;
  spacing ID_53;
}
object line_configuration {
  name ID_21;
  conductor_B ID_1172;
  conductor_N ID_1172;
  spacing ID_53;
}
object line_configuration {
  name ID_22;
  conductor_C ID_1172;
  conductor_N ID_1172;
  spacing ID_54;
}
object line_configuration {
  name ID_23;
  conductor_A ID_1172;
  conductor_B ID_1172;
  conductor_C ID_1172;
  conductor_N ID_1172;
  spacing ID_55;
}
object line_configuration {
  name ID_24;
  conductor_A ID_1173;
  conductor_B ID_1173;
  conductor_C ID_1173;
  conductor_N ID_1173;
  spacing ID_55;
}
object line_configuration {
  name ID_25;
  conductor_C ID_742;
  conductor_N ID_742;
  spacing ID_56;
}
object line_configuration {
  name ID_26;
  conductor_A ID_743;
  conductor_B ID_743;
  conductor_C ID_743;
  conductor_N ID_743;
  spacing ID_52;
}
object line_configuration {
  name ID_27;
  conductor_A ID_744;
  conductor_B ID_744;
  conductor_C ID_744;
  conductor_N ID_744;
  spacing ID_52;
}
object line_configuration {
  name ID_28;
  conductor_A ID_743;
  conductor_B ID_743;
  conductor_C ID_743;
  conductor_N ID_743;
  spacing ID_52;
}
object line_configuration {
  name ID_29;
  conductor_A ID_742;
  conductor_B ID_742;
  conductor_C ID_742;
  conductor_N ID_742;
  spacing ID_52;
}
object line_configuration {
  name ID_30;
  conductor_A ID_742;
  conductor_N ID_742;
  spacing ID_51;
}
object line_configuration {
  name ID_31;
  conductor_A ID_1172;
  conductor_N ID_1172;
  spacing ID_57;
}
object line_configuration {
  name ID_32;
  conductor_A ID_742;
  conductor_B ID_742;
  conductor_N ID_742;
  spacing ID_58;
}
object line_configuration {
  name ID_33;
  conductor_B ID_742;
  conductor_N ID_742;
  spacing ID_53;
}
object line_configuration {
  name ID_34;
  conductor_B ID_1172;
  conductor_N ID_1172;
  spacing ID_59;
}
object line_configuration {
  name ID_35;
  conductor_B ID_743;
  conductor_C ID_743;
  conductor_N ID_743;
  spacing ID_60;
}
object line_configuration {
  name ID_36;
  conductor_C ID_745;
  conductor_N ID_745;
  spacing ID_56;
}
object line_configuration {
  name ID_37;
  conductor_C ID_743;
  conductor_N ID_743;
  spacing ID_56;
}
object line_configuration {
  name ID_38;
  conductor_C ID_744;
  conductor_N ID_744;
  spacing ID_56;
}
object line_configuration {
  name ID_39;
  conductor_C ID_744;
  conductor_N ID_744;
  spacing ID_61;
}
object line_configuration {
  name ID_40;
  conductor_C ID_1171;
  conductor_N ID_1171;
  spacing ID_54;
}
object line_configuration {
  name ID_41;
  conductor_A ID_746;
  conductor_B ID_746;
  conductor_C ID_746;
  conductor_N ID_746;
  spacing ID_52;
}
object line_configuration {
  name ID_42;
  conductor_A ID_744;
  conductor_N ID_744;
  spacing ID_51;
}
object line_configuration {
  name ID_43;
  conductor_A ID_744;
  conductor_B ID_744;
  conductor_C ID_744;
  conductor_N ID_744;
  spacing ID_62;
}
object line_configuration {
  name ID_44;
  conductor_B ID_744;
  conductor_N ID_744;
  spacing ID_53;
}
object line_configuration {
  name ID_45;
  conductor_A ID_1172;
  conductor_C ID_1172;
  conductor_N ID_1172;
  spacing ID_63;
}
object line_configuration {
  name ID_46;
  conductor_A ID_1172;
  conductor_C ID_1172;
  conductor_N ID_1172;
  spacing ID_64;
}
object line_configuration {
  name ID_47;
  conductor_A ID_744;
  conductor_C ID_744;
  conductor_N ID_744;
  spacing ID_63;
}
object line_configuration {
  name ID_48;
  conductor_A ID_742;
  conductor_C ID_742;
  conductor_N ID_742;
  spacing ID_63;
}
object line_configuration {
  name ID_49;
  conductor_A ID_743;
  conductor_N ID_743;
  spacing ID_51;
}
object line_configuration {
  name ID_50;
  conductor_C ID_1171;
  conductor_N ID_1171;
  spacing ID_56;
}
object triplex_line_conductor {
  name triplex_4/0_aa;
  resistance 0.48;
  geometric_mean_radius 0.0158;
  rating.summer.continuous 1000.0;
  rating.summer.emergency 1000.0;
  rating.winter.continuous 1000.0;
  rating.winter.emergency 1000.0;
}
object triplex_line_configuration {
  name ID_938;
  conductor_1 triplex_4/0_aa;
  conductor_2 triplex_4/0_aa;
  conductor_N triplex_4/0_aa;
  insulation_thickness 0.08;
  diameter 0.522;
}
object underground_line_conductor {
  name ID_1171;
  rating.summer.continuous 142.0;
  outer_diameter 1.27;
  conductor_gmr 0.01142 ft;
  conductor_diameter 0.362;
  conductor_resistance 0.88704;
  neutral_gmr 0.00208 ft;
  neutral_resistance 14.87;
  neutral_diameter 0.0641;
  neutral_strands 16.0;
  insulation_relative_permitivitty 2.3;
}
object underground_line_conductor {
  name ID_1172;
  rating.summer.continuous 214.0;
  outer_diameter 1.32;
  conductor_gmr 0.0177 ft;
  conductor_diameter 0.528;
  conductor_resistance 0.433488;
  neutral_gmr 0.00208 ft;
  neutral_resistance 14.87;
  neutral_diameter 0.0641;
  neutral_strands 11.0;
  insulation_relative_permitivitty 2.3;
}
object underground_line_conductor {
  name ID_1173;
  rating.summer.continuous 775.0;
  outer_diameter 1.87;
  conductor_gmr 0.0371 ft;
  conductor_diameter 1.15;
  conductor_resistance 0.1162;
  shield_gmr 0.069167;
  shield_resistance 2.0135;
  shield_thickness 0.005;
  shield_diameter 1.66;
  insulation_relative_permitivitty 2.3;
}
object fuse {
  name R1_25_00_1_fuse_1;
// downstream 16.91 kva on A
  phases AN;
  from R1_25_00_1_node_148;
  to R1_25_00_1_node_292;
  current_limit 40;
  status CLOSED;
  mean_replacement_time 3600;
}
object fuse {
  name R1_25_00_1_fuse_2;
// downstream 17.23 kva on B
  phases BN;
  from R1_25_00_1_node_297;
  to R1_25_00_1_node_298;
  current_limit 40;
  status CLOSED;
  mean_replacement_time 3600;
}
object fuse {
  name R1_25_00_1_fuse_3;
// downstream 6.84 kva on C
  phases CN;
  from R1_25_00_1_node_64;
  to R1_25_00_1_node_65;
  current_limit 40;
  status CLOSED;
  mean_replacement_time 3600;
}
object fuse {
  name R1_25_00_1_fuse_4;
// downstream 59.75 kva on A
  phases AN;
  from R1_25_00_1_node_145;
  to R1_25_00_1_node_146;
  current_limit 40;
  status CLOSED;
  mean_replacement_time 3600;
}
object fuse {
  name R1_25_00_1_fuse_5;
// downstream 2307.14 kva on ABC
  phases ABCN;
  from R1_25_00_1_node_153;
  to R1_25_00_1_node_155;
  current_limit 200;
  status CLOSED;
  mean_replacement_time 3600;
}
object fuse {
  name R1_25_00_1_fuse_6;
// downstream 217.04 kva on ABC
  phases ABCN;
  from R1_25_00_1_node_164;
  to R1_25_00_1_node_165;
  current_limit 40;
  status CLOSED;
  mean_replacement_time 3600;
}
object fuse {
  name R1_25_00_1_fuse_7;
// downstream 16.91 kva on A
  phases AN;
  from R1_25_00_1_node_207;
  to R1_25_00_1_node_208;
  current_limit 40;
  status CLOSED;
  mean_replacement_time 3600;
}
object fuse {
  name R1_25_00_1_fuse_8;
// downstream 118.07 kva on ABC
  phases ABCN;
  from R1_25_00_1_node_207;
  to R1_25_00_1_node_213;
  current_limit 40;
  status CLOSED;
  mean_replacement_time 3600;
}
object fuse {
  name R1_25_00_1_fuse_9;
// downstream 184.66 kva on AS
  phases AN;
  from R1_25_00_1_node_244;
  to R1_25_00_1_node_250;
  current_limit 40;
  status CLOSED;
  mean_replacement_time 3600;
}
object fuse {
  name R1_25_00_1_fuse_10;
// downstream 159.85 kva on AS
  phases AN;
  from R1_25_00_1_node_259;
  to R1_25_00_1_node_261;
  current_limit 40;
  status CLOSED;
  mean_replacement_time 3600;
}
object fuse {
  name R1_25_00_1_fuse_11;
// downstream 11.18 kva on C
  phases CN;
  from R1_25_00_1_node_313;
  to R1_25_00_1_node_319;
  current_limit 40;
  status CLOSED;
  mean_replacement_time 3600;
}
object switch {
  name R1_25_00_1_switch_1;
// downstream 3626.97 kva on ABCS
  phases ABCN;
  from R1_25_00_1_node_288;
  to R1_25_00_1_node_1;
  status CLOSED;
}
object switch {
  name R1_25_00_1_switch_2;
  phases ABCN;
  from R1_25_00_1_node_1;
  to R1_25_00_1_node_323;
  status CLOSED;
}
object switch {
  name R1_25_00_1_switch_3;
  phases ABCN;
  from R1_25_00_1_node_2;
  to R1_25_00_1_node_287;
  status CLOSED;
}
object switch {
  name R1_25_00_1_switch_4;
// downstream 3451.61 kva on ABCS
  phases ABCN;
  from R1_25_00_1_node_16;
  to R1_25_00_1_node_17;
  status CLOSED;
}
object switch {
  name R1_25_00_1_switch_5;
// downstream 82.06 kva on C
  phases CN;
  from R1_25_00_1_node_176;
  to R1_25_00_1_node_177;
  status CLOSED;
}
object switch {
  name R1_25_00_1_switch_6;
// downstream 11.27 kva on A
  phases AN;
  from R1_25_00_1_node_277;
  to R1_25_00_1_node_278;
  status CLOSED;
}
object recloser {
  name R1_25_00_1_recloser_1;
// downstream 3626.97 kva on ABCS
  phases ABCN;
  from R1_25_00_1_node_1;
  to R1_25_00_1_node_2;
  status CLOSED;
  operating_mode INDIVIDUAL;
  phase_A_state CLOSED;
  phase_B_state CLOSED;
  phase_C_state CLOSED;
  retry_time 1.0 s;
  max_number_of_tries 3;
  number_of_tries 0;
}
object recloser {
  name R1_25_00_1_recloser_2;
// downstream 3235.88 kva on ABCS
  phases ABCN;
  from R1_25_00_1_node_58;
  to R1_25_00_1_node_59;
  status CLOSED;
  operating_mode INDIVIDUAL;
  phase_A_state CLOSED;
  phase_B_state CLOSED;
  phase_C_state CLOSED;
  retry_time 1.0 s;
  max_number_of_tries 3;
  number_of_tries 0;
}
object recloser {
  name R1_25_00_1_recloser_3;
// downstream 272.74 kva on ACS
  phases ACN;
  from R1_25_00_1_node_164;
  to R1_25_00_1_node_231;
  status CLOSED;
  operating_mode INDIVIDUAL;
  phase_A_state CLOSED;
  phase_B_state CLOSED;
  phase_C_state CLOSED;
  retry_time 1.0 s;
  max_number_of_tries 3;
  number_of_tries 0;
}
object overhead_line {
  name R1_25_00_1_ol_1;
  phases ABCN;
  from R1_25_00_1_node_152;
  to R1_25_00_1_node_295;
  length 222.941;
  configuration ID_19;
}
object overhead_line {
  name R1_25_00_1_ol_2;
  phases ABCN;
  from R1_25_00_1_node_295;
  to R1_25_00_1_node_296;
  length 286.161;
  configuration ID_19;
}
object overhead_line {
  name R1_25_00_1_ol_3;
// downstream 17.23 kva on B
  phases BN;
  from R1_25_00_1_node_72;
  to R1_25_00_1_node_297;
  length 87.900;
  configuration ID_20;
}
object overhead_line {
  name R1_25_00_1_ol_4;
// downstream 2.02 kva on B
  phases BN;
  from R1_25_00_1_node_303;
  to R1_25_00_1_node_304;
  length 256.500;
  configuration ID_20;
}
object overhead_line {
  name R1_25_00_1_ol_5;
// downstream 3625.61 kva on ABCS
  phases ABCN;
  from R1_25_00_1_node_2;
  to R1_25_00_1_node_3;
  length 780.680;
  configuration ID_19;
}
object overhead_line {
  name R1_25_00_1_ol_6;
// downstream 6.84 kva on C
  phases CN;
  from R1_25_00_1_node_3;
  to R1_25_00_1_node_4;
  length 86.878;
  configuration ID_25;
}
object overhead_line {
  name R1_25_00_1_ol_7;
// downstream 3611.93 kva on ABCS
  phases ABCN;
  from R1_25_00_1_node_3;
  to R1_25_00_1_node_5;
  length 531.916;
  configuration ID_19;
}
object overhead_line {
  name R1_25_00_1_ol_8;
// downstream 103.81 kva on C
  phases CN;
  from R1_25_00_1_node_5;
  to R1_25_00_1_node_6;
  length 133.293;
  configuration ID_25;
}
object overhead_line {
  name R1_25_00_1_ol_9;
// downstream 3508.12 kva on ABCS
  phases ABCN;
  from R1_25_00_1_node_5;
  to R1_25_00_1_node_10;
  length 1467.464;
  configuration ID_19;
}
object overhead_line {
  name R1_25_00_1_ol_10;
// downstream 3491.54 kva on ABCS
  phases ABCN;
  from R1_25_00_1_node_10;
  to R1_25_00_1_node_11;
  length 529.089;
  configuration ID_19;
}
object overhead_line {
  name R1_25_00_1_ol_11;
// downstream 3455.72 kva on ABCS
  phases ABCN;
  from R1_25_00_1_node_11;
  to R1_25_00_1_node_13;
  length 958.282;
  configuration ID_19;
}
object overhead_line {
  name R1_25_00_1_ol_12;
// downstream 3451.61 kva on ABCS
  phases ABCN;
  from R1_25_00_1_node_13;
  to R1_25_00_1_node_14;
  length 1035.874;
  configuration ID_19;
}
object overhead_line {
  name R1_25_00_1_ol_13;
  phases ABCN;
  from R1_25_00_1_node_14;
  to R1_25_00_1_node_15;
  length 290.358;
  configuration ID_26;
}
object overhead_line {
  name R1_25_00_1_ol_14;
// downstream 3451.61 kva on ABCS
  phases ABCN;
  from R1_25_00_1_node_14;
  to R1_25_00_1_node_16;
  length 283.100;
  configuration ID_19;
}
object overhead_line {
  name R1_25_00_1_ol_15;
// downstream 3451.61 kva on ABCS
  phases ABCN;
  from R1_25_00_1_node_17;
  to R1_25_00_1_node_18;
  length 273.306;
  configuration ID_19;
}
object overhead_line {
  name R1_25_00_1_ol_16;
// downstream 3451.61 kva on ABCS
  phases ABCN;
  from R1_25_00_1_node_18;
  to R1_25_00_1_node_19;
  length 1151.127;
  configuration ID_19;
}
object overhead_line {
  name R1_25_00_1_ol_17;
// downstream 2.74 kva on C
  phases CN;
  from R1_25_00_1_node_19;
  to R1_25_00_1_node_20;
  length 758.649;
  configuration ID_25;
}
object overhead_line {
  name R1_25_00_1_ol_18;
// downstream 3448.88 kva on ABCS
  phases ABCN;
  from R1_25_00_1_node_19;
  to R1_25_00_1_node_21;
  length 1248.736;
  configuration ID_19;
}
object overhead_line {
  name R1_25_00_1_ol_19;
// downstream 3448.88 kva on ABCS
  phases ABCN;
  from R1_25_00_1_node_21;
  to R1_25_00_1_node_22;
  length 2794.616;
  configuration ID_19;
}
object overhead_line {
  name R1_25_00_1_ol_20;
  phases ABCN;
  from R1_25_00_1_node_22;
  to R1_25_00_1_node_23;
  length 723.932;
  configuration ID_27;
}
object overhead_line {
  name R1_25_00_1_ol_21;
// downstream 3448.88 kva on ABCS
  phases ABCN;
  from R1_25_00_1_node_22;
  to R1_25_00_1_node_24;
  length 793.671;
  configuration ID_19;
}
object overhead_line {
  name R1_25_00_1_ol_22;
// downstream 96.62 kva on ABC
  phases ABCN;
  from R1_25_00_1_node_24;
  to R1_25_00_1_node_25;
  length 464.490;
  configuration ID_26;
}
object overhead_line {
  name R1_25_00_1_ol_23;
// downstream 3352.26 kva on ABCS
  phases ABCN;
  from R1_25_00_1_node_24;
  to R1_25_00_1_node_27;
  length 903.513;
  configuration ID_19;
}
object overhead_line {
  name R1_25_00_1_ol_24;
// downstream 3352.26 kva on ABCS
  phases ABCN;
  from R1_25_00_1_node_27;
  to R1_25_00_1_node_28;
  length 4679.254;
  configuration ID_19;
}
object overhead_line {
  name R1_25_00_1_ol_25;
// downstream 3352.26 kva on ABCS
  phases ABCN;
  from R1_25_00_1_node_28;
  to R1_25_00_1_node_29;
  length 1288.482;
  configuration ID_19;
}
object overhead_line {
  name R1_25_00_1_ol_26;
// downstream 3352.26 kva on ABCS
  phases ABCN;
  from R1_25_00_1_node_29;
  to R1_25_00_1_node_30;
  length 1807.697;
  configuration ID_19;
}
object overhead_line {
  name R1_25_00_1_ol_27;
// downstream 21.74 kva on ABC
  phases ABCN;
  from R1_25_00_1_node_30;
  to R1_25_00_1_node_31;
  length 399.928;
  configuration ID_28;
}
object overhead_line {
  name R1_25_00_1_ol_28;
// downstream 3330.52 kva on ABCS
  phases ABCN;
  from R1_25_00_1_node_30;
  to R1_25_00_1_node_32;
  length 1055.782;
  configuration ID_19;
}
object overhead_line {
  name R1_25_00_1_ol_29;
// downstream 14.49 kva on ABCS
  phases ABCN;
  from R1_25_00_1_node_32;
  to R1_25_00_1_node_33;
  length 257.003;
  configuration ID_29;
}
object overhead_line {
  name R1_25_00_1_ol_30;
// downstream 3316.03 kva on ABCS
  phases ABCN;
  from R1_25_00_1_node_32;
  to R1_25_00_1_node_34;
  length 486.078;
  configuration ID_19;
}
object overhead_line {
  name R1_25_00_1_ol_31;
// downstream 53.55 kva on AS
  phases AN;
  from R1_25_00_1_node_34;
  to R1_25_00_1_node_35;
  length 885.492;
  configuration ID_30;
}
object overhead_line {
  name R1_25_00_1_ol_32;
// downstream 9.02 kva on AS
  phases AN;
  from R1_25_00_1_node_35;
  to R1_25_00_1_node_36;
  length 522.865;
  configuration ID_30;
}
object overhead_line {
  name R1_25_00_1_ol_33;
// downstream 3.38 kva on AS
  phases AN;
  from R1_25_00_1_node_36;
  to R1_25_00_1_node_38;
  length 385.246;
  configuration ID_30;
}
object overhead_line {
  name R1_25_00_1_ol_34;
// downstream 4.51 kva on AS
  phases AN;
  from R1_25_00_1_node_35;
  to R1_25_00_1_node_39;
  length 931.201;
  configuration ID_30;
}
object overhead_line {
  name R1_25_00_1_ol_35;
// downstream 23.11 kva on AS
  phases AN;
  from R1_25_00_1_node_35;
  to R1_25_00_1_node_40;
  length 616.923;
  configuration ID_30;
}
object overhead_line {
  name R1_25_00_1_ol_36;
// downstream 8.46 kva on AS
  phases AN;
  from R1_25_00_1_node_40;
  to R1_25_00_1_node_41;
  length 252.776;
  configuration ID_30;
}
object overhead_line {
  name R1_25_00_1_ol_37;
// downstream 5.64 kva on AS
  phases AN;
  from R1_25_00_1_node_40;
  to R1_25_00_1_node_42;
  length 53.286;
  configuration ID_30;
}
object overhead_line {
  name R1_25_00_1_ol_38;
// downstream 5.64 kva on AS
  phases AN;
  from R1_25_00_1_node_40;
  to R1_25_00_1_node_44;
  length 307.399;
  configuration ID_30;
}
object overhead_line {
  name R1_25_00_1_ol_39;
// downstream 2.25 kva on AS
  phases AN;
  from R1_25_00_1_node_44;
  to R1_25_00_1_node_45;
  length 134.455;
  configuration ID_30;
}
object overhead_line {
  name R1_25_00_1_ol_40;
// downstream 3.38 kva on AS
  phases AN;
  from R1_25_00_1_node_44;
  to R1_25_00_1_node_46;
  length 619.674;
  configuration ID_30;
}
object overhead_line {
  name R1_25_00_1_ol_41;
// downstream 3262.48 kva on ABCS
  phases ABCN;
  from R1_25_00_1_node_34;
  to R1_25_00_1_node_47;
  length 1797.828;
  configuration ID_19;
}
object overhead_line {
  name R1_25_00_1_ol_42;
// downstream 3262.48 kva on ABCS
  phases ABCN;
  from R1_25_00_1_node_47;
  to R1_25_00_1_node_48;
  length 1163.289;
  configuration ID_19;
}
object overhead_line {
  name R1_25_00_1_ol_43;
// downstream 3262.48 kva on ABCS
  phases ABCN;
  from R1_25_00_1_node_48;
  to R1_25_00_1_node_49;
  length 2214.406;
  configuration ID_19;
}
object overhead_line {
  name R1_25_00_1_ol_44;
  phases ABN;
  from R1_25_00_1_node_49;
  to R1_25_00_1_node_50;
  length 1339.388;
  configuration ID_32;
}
object overhead_line {
  name R1_25_00_1_ol_45;
// downstream 3262.48 kva on ABCS
  phases ABCN;
  from R1_25_00_1_node_49;
  to R1_25_00_1_node_51;
  length 255.314;
  configuration ID_19;
}
object overhead_line {
  name R1_25_00_1_ol_46;
// downstream 14.49 kva on ABC
  phases ABCN;
  from R1_25_00_1_node_51;
  to R1_25_00_1_node_52;
  length 340.634;
  configuration ID_29;
}
object overhead_line {
  name R1_25_00_1_ol_47;
// downstream 3247.98 kva on ABCS
  phases ABCN;
  from R1_25_00_1_node_51;
  to R1_25_00_1_node_53;
  length 186.573;
  configuration ID_19;
}
object overhead_line {
  name R1_25_00_1_ol_48;
// downstream 12.11 kva on B
  phases BN;
  from R1_25_00_1_node_53;
  to R1_25_00_1_node_54;
  length 692.829;
  configuration ID_33;
}
object overhead_line {
  name R1_25_00_1_ol_49;
// downstream 3235.88 kva on ABCS
  phases ABCN;
  from R1_25_00_1_node_53;
  to R1_25_00_1_node_56;
  length 177.148;
  configuration ID_19;
}
object overhead_line {
  name R1_25_00_1_ol_50;
// downstream 3235.88 kva on ABCS
  phases ABCN;
  from R1_25_00_1_node_56;
  to R1_25_00_1_node_57;
  length 812.302;
  configuration ID_19;
}
object overhead_line {
  name R1_25_00_1_ol_51;
// downstream 3235.88 kva on ABCS
  phases ABCN;
  from R1_25_00_1_node_57;
  to R1_25_00_1_node_58;
  length 3533.588;
  configuration ID_19;
}
object overhead_line {
  name R1_25_00_1_ol_52;
// downstream 73.09 kva on C
  phases BCN;
  from R1_25_00_1_node_59;
  to R1_25_00_1_node_60;
  length 914.885;
  configuration ID_35;
}
object overhead_line {
  name R1_25_00_1_ol_53;
// downstream 73.09 kva on C
  phases CN;
  from R1_25_00_1_node_60;
  to R1_25_00_1_node_318;
  length 0.418;
  configuration ID_36;
}
object overhead_line {
  name R1_25_00_1_ol_54;
// downstream 4.47 kva on C
  phases CN;
  from R1_25_00_1_node_61;
  to R1_25_00_1_node_62;
  length 259.600;
  configuration ID_25;
}
object overhead_line {
  name R1_25_00_1_ol_55;
// downstream 61.78 kva on C
  phases CN;
  from R1_25_00_1_node_61;
  to R1_25_00_1_node_316;
  length 366.463;
  configuration ID_36;
}
object overhead_line {
  name R1_25_00_1_ol_56;
// downstream 6.84 kva on C
  phases CN;
  from R1_25_00_1_node_63;
  to R1_25_00_1_node_64;
  length 44.691;
  configuration ID_36;
}
object overhead_line {
  name R1_25_00_1_ol_57;
// downstream 43.77 kva on C
  phases CN;
  from R1_25_00_1_node_63;
  to R1_25_00_1_node_66;
  length 1546.125;
  configuration ID_36;
}
object overhead_line {
  name R1_25_00_1_ol_58;
  phases CN;
  from R1_25_00_1_node_66;
  to R1_25_00_1_node_67;
  length 259.294;
  configuration ID_25;
}
object overhead_line {
  name R1_25_00_1_ol_59;
// downstream 43.77 kva on C
  phases CN;
  from R1_25_00_1_node_66;
  to R1_25_00_1_node_68;
  length 5387.700;
  configuration ID_36;
}
object overhead_line {
  name R1_25_00_1_ol_60;
// downstream 24.62 kva on C
  phases CN;
  from R1_25_00_1_node_69;
  to R1_25_00_1_node_70;
  length 511.100;
  configuration ID_37;
}
object overhead_line {
  name R1_25_00_1_ol_61;
// downstream 3162.78 kva on ABCS
  phases ABCN;
  from R1_25_00_1_node_59;
  to R1_25_00_1_node_72;
  length 843.548;
  configuration ID_19;
}
object overhead_line {
  name R1_25_00_1_ol_62;
// downstream 3145.55 kva on ABCS
  phases ABCN;
  from R1_25_00_1_node_72;
  to R1_25_00_1_node_73;
  length 3299.314;
  configuration ID_19;
}
object overhead_line {
  name R1_25_00_1_ol_63;
// downstream 3145.55 kva on ABCS
  phases ABCN;
  from R1_25_00_1_node_73;
  to R1_25_00_1_node_74;
  length 2189.471;
  configuration ID_19;
}
object overhead_line {
  name R1_25_00_1_ol_64;
// downstream 3145.55 kva on ABCS
  phases ABCN;
  from R1_25_00_1_node_74;
  to R1_25_00_1_node_75;
  length 6180.248;
  configuration ID_19;
}
object overhead_line {
  name R1_25_00_1_ol_65;
// downstream 3145.55 kva on ABCS
  phases ABCN;
  from R1_25_00_1_node_75;
  to R1_25_00_1_node_76;
  length 1214.698;
  configuration ID_19;
}
object overhead_line {
  name R1_25_00_1_ol_66;
// downstream 3145.55 kva on ABCS
  phases ABCN;
  from R1_25_00_1_node_76;
  to R1_25_00_1_node_762;
  length 1830.079;
  configuration ID_19;
}
object overhead_line {
  name R1_25_00_1_ol_67;
// downstream 3145.55 kva on ABCS
  phases ABCN;
  from R1_25_00_1_node_77;
  to R1_25_00_1_node_78;
  length 2503.685;
  configuration ID_19;
}
object overhead_line {
  name R1_25_00_1_ol_68;
// downstream 3145.55 kva on ABCS
  phases ABCN;
  from R1_25_00_1_node_78;
  to R1_25_00_1_node_79;
  length 5658.846;
  configuration ID_19;
}
object overhead_line {
  name R1_25_00_1_ol_69;
// downstream 3145.55 kva on ABCS
  phases ABCN;
  from R1_25_00_1_node_79;
  to R1_25_00_1_node_80;
  length 3075.977;
  configuration ID_19;
}
object overhead_line {
  name R1_25_00_1_ol_70;
// downstream 3145.55 kva on ABCS
  phases ABCN;
  from R1_25_00_1_node_80;
  to R1_25_00_1_node_81;
  length 3145.643;
  configuration ID_19;
}
object overhead_line {
  name R1_25_00_1_ol_71;
// downstream 259.86 kva on CS
  phases CN;
  from R1_25_00_1_node_81;
  to R1_25_00_1_node_82;
  length 421.439;
  configuration ID_37;
}
object overhead_line {
  name R1_25_00_1_ol_72;
// downstream 259.86 kva on CS
  phases CN;
  from R1_25_00_1_node_82;
  to R1_25_00_1_node_83;
  length 188.424;
  configuration ID_25;
}
object overhead_line {
  name R1_25_00_1_ol_73;
// downstream 259.86 kva on CS
  phases CN;
  from R1_25_00_1_node_84;
  to R1_25_00_1_node_85;
  length 107.283;
  configuration ID_37;
}
object overhead_line {
  name R1_25_00_1_ol_74;
// downstream 259.86 kva on CS
  phases CN;
  from R1_25_00_1_node_86;
  to R1_25_00_1_node_87;
  length 515.452;
  configuration ID_37;
}
object overhead_line {
  name R1_25_00_1_ol_75;
// downstream 259.86 kva on CS
  phases CN;
  from R1_25_00_1_node_89;
  to R1_25_00_1_node_90;
  length 160.284;
  configuration ID_37;
}
object overhead_line {
  name R1_25_00_1_ol_76;
// downstream 259.86 kva on CS
  phases CN;
  from R1_25_00_1_node_91;
  to R1_25_00_1_node_92;
  length 535.321;
  configuration ID_37;
}
object overhead_line {
  name R1_25_00_1_ol_77;
// downstream 259.86 kva on CS
  phases CN;
  from R1_25_00_1_node_94;
  to R1_25_00_1_node_95;
  length 300.686;
  configuration ID_36;
}
object overhead_line {
  name R1_25_00_1_ol_78;
// downstream 248.92 kva on CS
  phases CN;
  from R1_25_00_1_node_99;
  to R1_25_00_1_node_100;
  length 230.107;
  configuration ID_37;
}
object overhead_line {
  name R1_25_00_1_ol_79;
// downstream 9.57 kva on C
  phases CN;
  from R1_25_00_1_node_101;
  to R1_25_00_1_node_102;
  length 1329.720;
  configuration ID_37;
}
object overhead_line {
  name R1_25_00_1_ol_80;
// downstream 239.34 kva on CS
  phases CN;
  from R1_25_00_1_node_104;
  to R1_25_00_1_node_105;
  length 622.019;
  configuration ID_38;
}
object overhead_line {
  name R1_25_00_1_ol_81;
// downstream 21.88 kva on CS
  phases CN;
  from R1_25_00_1_node_105;
  to R1_25_00_1_node_106;
  length 1018.135;
  configuration ID_37;
}
object overhead_line {
  name R1_25_00_1_ol_82;
// downstream 213.36 kva on CS
  phases CN;
  from R1_25_00_1_node_105;
  to R1_25_00_1_node_107;
  length 172.946;
  configuration ID_38;
}
object overhead_line {
  name R1_25_00_1_ol_83;
// downstream 206.52 kva on CS
  phases CN;
  from R1_25_00_1_node_107;
  to R1_25_00_1_node_109;
  length 169.788;
  configuration ID_38;
}
object overhead_line {
  name R1_25_00_1_ol_84;
// downstream 186.00 kva on C
  phases CN;
  from R1_25_00_1_node_114;
  to R1_25_00_1_node_115;
  length 163.261;
  configuration ID_38;
}
object overhead_line {
  name R1_25_00_1_ol_85;
// downstream 186.00 kva on C
  phases CN;
  from R1_25_00_1_node_116;
  to R1_25_00_1_node_117;
  length 99.000;
  configuration ID_39;
}
object overhead_line {
  name R1_25_00_1_ol_86;
// downstream 186.00 kva on C
  phases CN;
  from R1_25_00_1_node_118;
  to R1_25_00_1_node_119;
  length 120.757;
  configuration ID_38;
}
object overhead_line {
  name R1_25_00_1_ol_87;
// downstream 186.00 kva on C
  phases CN;
  from R1_25_00_1_node_122;
  to R1_25_00_1_node_123;
  length 583.414;
  configuration ID_37;
}
object overhead_line {
  name R1_25_00_1_ol_88;
// downstream 186.00 kva on C
  phases CN;
  from R1_25_00_1_node_124;
  to R1_25_00_1_node_125;
  length 75.273;
  configuration ID_37;
}
object overhead_line {
  name R1_25_00_1_ol_89;
// downstream 183.27 kva on C
  phases CN;
  from R1_25_00_1_node_126;
  to R1_25_00_1_node_127;
  length 276.968;
  configuration ID_38;
}
object overhead_line {
  name R1_25_00_1_ol_90;
  phases CN;
  from R1_25_00_1_node_127;
  to R1_25_00_1_node_128;
  length 10.000;
  configuration ID_38;
}
object overhead_line {
  name R1_25_00_1_ol_91;
// downstream 183.27 kva on C
  phases CN;
  from R1_25_00_1_node_127;
  to R1_25_00_1_node_129;
  length 977.228;
  configuration ID_38;
}
object overhead_line {
  name R1_25_00_1_ol_92;
// downstream 2.74 kva on C
  phases CN;
  from R1_25_00_1_node_131;
  to R1_25_00_1_node_132;
  length 284.368;
  configuration ID_25;
}
object overhead_line {
  name R1_25_00_1_ol_93;
// downstream 2885.69 kva on ABCS
  phases ABCN;
  from R1_25_00_1_node_81;
  to R1_25_00_1_node_145;
  length 6183.737;
  configuration ID_19;
}
object overhead_line {
  name R1_25_00_1_ol_94;
// downstream 59.75 kva on A
  phases AN;
  from R1_25_00_1_node_146;
  to R1_25_00_1_node_147;
  length 1426.649;
  configuration ID_30;
}
object overhead_line {
  name R1_25_00_1_ol_95;
// downstream 20.29 kva on A
  phases AN;
  from R1_25_00_1_node_147;
  to R1_25_00_1_node_148;
  length 534.900;
  configuration ID_30;
}
object overhead_line {
  name R1_25_00_1_ol_96;
// downstream 39.46 kva on A
  phases AN;
  from R1_25_00_1_node_147;
  to R1_25_00_1_node_149;
  length 781.179;
  configuration ID_30;
}
object overhead_line {
  name R1_25_00_1_ol_97;
// downstream 3.38 kva on A
  phases AN;
  from R1_25_00_1_node_149;
  to R1_25_00_1_node_150;
  length 418.500;
  configuration ID_30;
}
object overhead_line {
  name R1_25_00_1_ol_98;
// downstream 36.08 kva on A
  phases AN;
  from R1_25_00_1_node_149;
  to R1_25_00_1_node_151;
  length 571.580;
  configuration ID_30;
}
object overhead_line {
  name R1_25_00_1_ol_99;
// downstream 2825.94 kva on ABCS
  phases ABCN;
  from R1_25_00_1_node_145;
  to R1_25_00_1_node_152;
  length 2825.043;
  configuration ID_19;
}
object overhead_line {
  name R1_25_00_1_ol_100;
// downstream 2825.94 kva on ABCS
  phases ABCN;
  from R1_25_00_1_node_152;
  to R1_25_00_1_node_153;
  length 1527.769;
  configuration ID_19;
}
object overhead_line {
  name R1_25_00_1_ol_101;
// downstream 29.02 kva on ABC
  phases ABCN;
  from R1_25_00_1_node_153;
  to R1_25_00_1_node_154;
  length 215.000;
  configuration ID_19;
}
object overhead_line {
  name R1_25_00_1_ol_102;
// downstream 1626.70 kva on ABC
  phases ABCN;
  from R1_25_00_1_node_155;
  to R1_25_00_1_node_156;
  length 181.800;
  configuration ID_41;
}
object overhead_line {
  name R1_25_00_1_ol_103;
// downstream 676.34 kva on ABC
  phases ABCN;
  from R1_25_00_1_node_155;
  to R1_25_00_1_node_157;
  length 211.542;
  configuration ID_19;
}
object overhead_line {
  name R1_25_00_1_ol_104;
// downstream 386.48 kva on ABC
  phases ABCN;
  from R1_25_00_1_node_157;
  to R1_25_00_1_node_158;
  length 91.178;
  configuration ID_19;
}
object overhead_line {
  name R1_25_00_1_ol_105;
// downstream 289.86 kva on ABC
  phases ABCN;
  from R1_25_00_1_node_157;
  to R1_25_00_1_node_160;
  length 114.633;
  configuration ID_27;
}
object overhead_line {
  name R1_25_00_1_ol_106;
// downstream 489.78 kva on ABCS
  phases ABCN;
  from R1_25_00_1_node_153;
  to R1_25_00_1_node_162;
  length 268.021;
  configuration ID_19;
}
object overhead_line {
  name R1_25_00_1_ol_107;
// downstream 489.78 kva on ABCS
  phases ABCN;
  from R1_25_00_1_node_162;
  to R1_25_00_1_node_163;
  length 1803.588;
  configuration ID_27;
}
object overhead_line {
  name R1_25_00_1_ol_108;
// downstream 489.78 kva on ABCS
  phases ABCN;
  from R1_25_00_1_node_163;
  to R1_25_00_1_node_164;
  length 643.241;
  configuration ID_27;
}
object overhead_line {
  name R1_25_00_1_ol_109;
// downstream 217.04 kva on ABC
  phases ABCN;
  from R1_25_00_1_node_165;
  to R1_25_00_1_node_166;
  length 5867.221;
  configuration ID_27;
}
object overhead_line {
  name R1_25_00_1_ol_110;
// downstream 217.04 kva on ABC
  phases ABCN;
  from R1_25_00_1_node_166;
  to R1_25_00_1_node_167;
  length 5222.171;
  configuration ID_27;
}
object overhead_line {
  name R1_25_00_1_ol_111;
// downstream 217.04 kva on ABC
  phases ABCN;
  from R1_25_00_1_node_167;
  to R1_25_00_1_node_168;
  length 3740.183;
  configuration ID_27;
}
object overhead_line {
  name R1_25_00_1_ol_112;
// downstream 217.04 kva on ABC
  phases ABCN;
  from R1_25_00_1_node_168;
  to R1_25_00_1_node_169;
  length 2086.464;
  configuration ID_27;
}
object overhead_line {
  name R1_25_00_1_ol_113;
// downstream 217.04 kva on ABC
  phases ABCN;
  from R1_25_00_1_node_169;
  to R1_25_00_1_node_170;
  length 5198.494;
  configuration ID_27;
}
object overhead_line {
  name R1_25_00_1_ol_114;
// downstream 217.04 kva on ABC
  phases ABCN;
  from R1_25_00_1_node_170;
  to R1_25_00_1_node_171;
  length 5824.340;
  configuration ID_27;
}
object overhead_line {
  name R1_25_00_1_ol_115;
// downstream 217.04 kva on ABC
  phases ABCN;
  from R1_25_00_1_node_171;
  to R1_25_00_1_node_172;
  length 5162.184;
  configuration ID_27;
}
object overhead_line {
  name R1_25_00_1_ol_116;
// downstream 217.04 kva on ABC
  phases ABCN;
  from R1_25_00_1_node_172;
  to R1_25_00_1_node_173;
  length 6057.891;
  configuration ID_27;
}
object overhead_line {
  name R1_25_00_1_ol_117;
// downstream 217.04 kva on ABC
  phases ABCN;
  from R1_25_00_1_node_173;
  to R1_25_00_1_node_174;
  length 3482.477;
  configuration ID_27;
}
object overhead_line {
  name R1_25_00_1_ol_118;
// downstream 217.04 kva on ABC
  phases ABCN;
  from R1_25_00_1_node_174;
  to R1_25_00_1_node_175;
  length 2891.031;
  configuration ID_27;
}
object overhead_line {
  name R1_25_00_1_ol_119;
// downstream 217.04 kva on ABC
  phases ABCN;
  from R1_25_00_1_node_175;
  to R1_25_00_1_node_176;
  length 3672.000;
  configuration ID_27;
}
object overhead_line {
  name R1_25_00_1_ol_120;
// downstream 82.06 kva on C
  phases CN;
  from R1_25_00_1_node_178;
  to R1_25_00_1_node_179;
  length 58.097;
  configuration ID_38;
}
object overhead_line {
  name R1_25_00_1_ol_121;
// downstream 82.06 kva on C
  phases CN;
  from R1_25_00_1_node_180;
  to R1_25_00_1_node_181;
  length 62.961;
  configuration ID_38;
}
object overhead_line {
  name R1_25_00_1_ol_122;
// downstream 82.06 kva on C
  phases CN;
  from R1_25_00_1_node_182;
  to R1_25_00_1_node_183;
  length 54.836;
  configuration ID_38;
}
object overhead_line {
  name R1_25_00_1_ol_123;
// downstream 82.06 kva on C
  phases CN;
  from R1_25_00_1_node_184;
  to R1_25_00_1_node_185;
  length 127.497;
  configuration ID_38;
}
object overhead_line {
  name R1_25_00_1_ol_124;
// downstream 82.06 kva on C
  phases CN;
  from R1_25_00_1_node_186;
  to R1_25_00_1_node_187;
  length 51.751;
  configuration ID_38;
}
object overhead_line {
  name R1_25_00_1_ol_125;
// downstream 82.06 kva on C
  phases CN;
  from R1_25_00_1_node_188;
  to R1_25_00_1_node_189;
  length 266.800;
  configuration ID_38;
}
object overhead_line {
  name R1_25_00_1_ol_126;
// downstream 82.06 kva on C
  phases CN;
  from R1_25_00_1_node_194;
  to R1_25_00_1_node_195;
  length 186.933;
  configuration ID_38;
}
object overhead_line {
  name R1_25_00_1_ol_127;
// downstream 6.84 kva on C
  phases CN;
  from R1_25_00_1_node_196;
  to R1_25_00_1_node_197;
  length 496.287;
  configuration ID_38;
}
object overhead_line {
  name R1_25_00_1_ol_128;
// downstream 68.38 kva on C
  phases CN;
  from R1_25_00_1_node_196;
  to R1_25_00_1_node_198;
  length 283.362;
  configuration ID_38;
}
object overhead_line {
  name R1_25_00_1_ol_129;
// downstream 68.38 kva on C
  phases CN;
  from R1_25_00_1_node_199;
  to R1_25_00_1_node_200;
  length 88.246;
  configuration ID_38;
}
object overhead_line {
  name R1_25_00_1_ol_130;
// downstream 134.98 kva on ABC
  phases ABCN;
  from R1_25_00_1_node_176;
  to R1_25_00_1_node_207;
  length 340.951;
  configuration ID_27;
}
object overhead_line {
  name R1_25_00_1_ol_131;
// downstream 16.91 kva on A
  phases AN;
  from R1_25_00_1_node_208;
  to R1_25_00_1_node_209;
  length 1132.661;
  configuration ID_42;
}
object overhead_line {
  name R1_25_00_1_ol_132;
// downstream 118.07 kva on ABC
  phases ABCN;
  from R1_25_00_1_node_214;
  to R1_25_00_1_node_215;
  length 104.000;
  configuration ID_43;
}
object overhead_line {
  name R1_25_00_1_ol_133;
  phases ABCN;
  from R1_25_00_1_node_216;
  to R1_25_00_1_node_217;
  length 61.000;
  configuration ID_43;
}
object overhead_line {
  name R1_25_00_1_ol_134;
  phases ABCN;
  from R1_25_00_1_node_218;
  to R1_25_00_1_node_219;
  length 89.849;
  configuration ID_27;
}
object overhead_line {
  name R1_25_00_1_ol_135;
// downstream 13.52 kva on B
  phases BN;
  from R1_25_00_1_node_226;
  to R1_25_00_1_node_227;
  length 48.506;
  configuration ID_44;
}
object overhead_line {
  name R1_25_00_1_ol_136;
// downstream 16.91 kva on A
  phases AN;
  from R1_25_00_1_node_237;
  to R1_25_00_1_node_238;
  length 230.666;
  configuration ID_30;
}
object overhead_line {
  name R1_25_00_1_ol_137;
// downstream 244.56 kva on ACS
  phases ACN;
  from R1_25_00_1_node_237;
  to R1_25_00_1_node_239;
  length 183.800;
  configuration ID_47;
}
object overhead_line {
  name R1_25_00_1_ol_138;
// downstream 5.64 kva on A
  phases AN;
  from R1_25_00_1_node_244;
  to R1_25_00_1_node_245;
  length 193.938;
  configuration ID_30;
}
object overhead_line {
  name R1_25_00_1_ol_139;
// downstream 50.88 kva on AC
  phases ACN;
  from R1_25_00_1_node_244;
  to R1_25_00_1_node_246;
  length 287.000;
  configuration ID_48;
}
object overhead_line {
  name R1_25_00_1_ol_140;
// downstream 42.99 kva on AC
  phases ACN;
  from R1_25_00_1_node_246;
  to R1_25_00_1_node_248;
  length 1080.600;
  configuration ID_48;
}
object overhead_line {
  name R1_25_00_1_ol_141;
// downstream 31.71 kva on AC
  phases ACN;
  from R1_25_00_1_node_248;
  to R1_25_00_1_node_249;
  length 1143.200;
  configuration ID_48;
}
object overhead_line {
  name R1_25_00_1_ol_142;
// downstream 3.38 kva on A
  phases AN;
  from R1_25_00_1_node_250;
  to R1_25_00_1_node_251;
  length 444.353;
  configuration ID_30;
}
object overhead_line {
  name R1_25_00_1_ol_143;
// downstream 181.27 kva on AS
  phases AN;
  from R1_25_00_1_node_250;
  to R1_25_00_1_node_252;
  length 3598.804;
  configuration ID_49;
}
object overhead_line {
  name R1_25_00_1_ol_144;
// downstream 5.64 kva on A
  phases AN;
  from R1_25_00_1_node_252;
  to R1_25_00_1_node_253;
  length 131.034;
  configuration ID_49;
}
object overhead_line {
  name R1_25_00_1_ol_145;
// downstream 175.64 kva on AS
  phases AN;
  from R1_25_00_1_node_252;
  to R1_25_00_1_node_255;
  length 1541.440;
  configuration ID_49;
}
object overhead_line {
  name R1_25_00_1_ol_146;
// downstream 3.38 kva on A
  phases AN;
  from R1_25_00_1_node_255;
  to R1_25_00_1_node_256;
  length 92.731;
  configuration ID_49;
}
object overhead_line {
  name R1_25_00_1_ol_147;
// downstream 172.25 kva on AS
  phases AN;
  from R1_25_00_1_node_255;
  to R1_25_00_1_node_257;
  length 286.768;
  configuration ID_49;
}
object overhead_line {
  name R1_25_00_1_ol_148;
// downstream 9.02 kva on A
  phases AN;
  from R1_25_00_1_node_257;
  to R1_25_00_1_node_258;
  length 655.516;
  configuration ID_49;
}
object overhead_line {
  name R1_25_00_1_ol_149;
// downstream 163.24 kva on AS
  phases AN;
  from R1_25_00_1_node_257;
  to R1_25_00_1_node_259;
  length 4143.494;
...